<?xml version="1.0" encoding="UTF-8"?>

<!-- generated on Thu Mar 14 11:12:35 2019 by SUMO duarouter Version 0.32.0
<?xml version="1.0" encoding="UTF-8"?>

<configuration xmlns:xsi="http://www.w3.org/2001/XMLSchema-instance" xsi:noNamespaceSchemaLocation="http://sumo.dlr.de/xsd/duarouterConfiguration.xsd">

    <input>
        <net-file value="map.net.xml"/>
        <route-files value="trips.trips.xml"/>
    </input>

    <output>
        <output-file value="map.rou.xml"/>
        <alternatives-output value="map.rou.alt.xml"/>
    </output>

    <processing>
        <ignore-errors value="true"/>
    </processing>

    <time>
        <begin value="0"/>
        <end value="3600"/>
    </time>

    <report>
        <no-step-log value="true"/>
    </report>

</configuration>
-->

<routes xmlns:xsi="http://www.w3.org/2001/XMLSchema-instance" xsi:noNamespaceSchemaLocation="http://sumo.dlr.de/xsd/routes_file.xsd">
    <vehicle id="133" depart="0">
        <route edges="430188611#0 430188611#1 430188611#2 430188611#3 430188611#4 430188611#5 430188611#6 430188611#7 307176008#0 307176008#1 165994659#0 165994659#1 165994659#2 165994659#3 165994659#4 -165993754#2 -165993754#1 -165993754#0 165994528#9 165994528#10 165994528#11 165994528#12 165994528#13 165994072#6 165994072#7 165994072#8 165994291#10"/>
    </vehicle>
</routes>
