<?xml version="1.0"?>
<!-- generated on 2019-03-14 11:12:34.213024 by $Id: randomTrips.py 18756 2015-08-31 19:16:33Z behrisch $
  options: -n map.net.xml -r map.rou.xml e 100 -l
-->
<trips>
    <trip id="0" depart="0.00" from="209176698#0" to="-618839161" />
    <trip id="1" depart="1.00" from="599458765#0" to="564451289" />
    <trip id="2" depart="2.00" from="-165994560#0" to="165993416#2" />
    <trip id="3" depart="3.00" from="430374959#1" to="-603453217#1" />
    <trip id="4" depart="4.00" from="-561857929" to="166045647#2" />
    <trip id="5" depart="5.00" from="-618839162" to="-664517544#0" />
    <trip id="6" depart="6.00" from="302165056#8" to="165993890#11" />
    <trip id="7" depart="7.00" from="482572463#1" to="-430117886#5" />
    <trip id="8" depart="8.00" from="165993902#8" to="-664517483#1" />
    <trip id="9" depart="9.00" from="561837543#2" to="209176698#2" />
    <trip id="10" depart="10.00" from="326408908#1" to="-165993902#2" />
    <trip id="11" depart="11.00" from="599458445#1" to="-562508394#0" />
    <trip id="12" depart="12.00" from="-250690613#1" to="618831275#18" />
    <trip id="13" depart="13.00" from="-233882734#0" to="618831275#4" />
    <trip id="14" depart="14.00" from="599407796#19" to="537670452#3" />
    <trip id="15" depart="15.00" from="599400476#0" to="166047831#1" />
    <trip id="16" depart="16.00" from="-430267810" to="-618839161" />
    <trip id="17" depart="17.00" from="-618839174#1" to="-166045977#1" />
    <trip id="18" depart="18.00" from="-618831275#2" to="165994072#12" />
    <trip id="19" depart="19.00" from="233882919#1" to="430188611#3" />
    <trip id="20" depart="20.00" from="165993777" to="-302165056#8" />
    <trip id="21" depart="21.00" from="564451289" to="166047808#1" />
    <trip id="22" depart="22.00" from="-263292317#3" to="599410580#1" />
    <trip id="23" depart="23.00" from="233890620#1" to="165993858#2" />
    <trip id="24" depart="24.00" from="564393201#1" to="562615139#0" />
    <trip id="25" depart="25.00" from="537670452#2" to="599453833" />
    <trip id="26" depart="26.00" from="-233882113#5" to="617272130#1" />
    <trip id="27" depart="27.00" from="618831275#9" to="-430213018#1" />
    <trip id="28" depart="28.00" from="165994574#2" to="617272023" />
    <trip id="29" depart="29.00" from="326505126#1" to="-233882217#1" />
    <trip id="30" depart="30.00" from="-166045647#1" to="-430379418#1" />
    <trip id="31" depart="31.00" from="165993845#1" to="618831275#15" />
    <trip id="32" depart="32.00" from="430663414" to="233879978" />
    <trip id="33" depart="33.00" from="-302165056#8" to="-603700056" />
    <trip id="34" depart="34.00" from="-561849431#0" to="326520854#2" />
    <trip id="35" depart="35.00" from="-165994561#2" to="562615146" />
    <trip id="36" depart="36.00" from="-446168075#1" to="165993860#4" />
    <trip id="37" depart="37.00" from="-307180195#3" to="235014803#4" />
    <trip id="38" depart="38.00" from="-233884332#3" to="165994219#3" />
    <trip id="39" depart="39.00" from="-564392638#1" to="-169738591#0" />
    <trip id="40" depart="40.00" from="-603454526#0" to="326518705" />
    <trip id="41" depart="41.00" from="-233882919#2" to="165994015#2" />
    <trip id="42" depart="42.00" from="-165993881#3" to="-664517391" />
    <trip id="43" depart="43.00" from="300655403#7" to="165994393#2" />
    <trip id="44" depart="44.00" from="-664517627#1" to="599409897" />
    <trip id="45" depart="45.00" from="-618839160#3" to="307180230#2" />
    <trip id="46" depart="46.00" from="429785464#0" to="-166047884#1" />
    <trip id="47" depart="47.00" from="-233890620#0" to="-166047650#2" />
    <trip id="48" depart="48.00" from="618839147#1" to="-174510896#3" />
    <trip id="49" depart="49.00" from="-618831275#14" to="-165994600#1" />
    <trip id="50" depart="50.00" from="165993995#2" to="-165993585#0" />
    <trip id="51" depart="51.00" from="-174510896#12" to="430131595" />
    <trip id="52" depart="52.00" from="-561837543#2" to="-535290921#0" />
    <trip id="53" depart="53.00" from="166047756#1" to="-430124915#0" />
    <trip id="54" depart="54.00" from="-326601317" to="-166047587#4" />
    <trip id="55" depart="55.00" from="-564486952#0" to="-165993958#0" />
    <trip id="56" depart="56.00" from="165993805#2" to="174491284#4" />
    <trip id="57" depart="57.00" from="-482571484#1" to="302165056#7" />
    <trip id="58" depart="58.00" from="-599458445#0" to="-307180248#1" />
    <trip id="59" depart="59.00" from="-165993953#1" to="-599457897" />
    <trip id="60" depart="60.00" from="235014836#0" to="165994494#5" />
    <trip id="61" depart="61.00" from="298925880#1" to="166047719#1" />
    <trip id="62" depart="62.00" from="561837543#2" to="299592867#8" />
    <trip id="63" depart="63.00" from="165994301#0" to="165993808#1" />
    <trip id="64" depart="64.00" from="599409899" to="-233880857#3" />
    <trip id="65" depart="65.00" from="-617272138" to="-174491292#1" />
    <trip id="66" depart="66.00" from="302165056#8" to="618839160#2" />
    <trip id="67" depart="67.00" from="482571843#2" to="-599457896#1" />
    <trip id="68" depart="68.00" from="298883429#0" to="564392638#1" />
    <trip id="69" depart="69.00" from="561542503#2" to="430203696" />
    <trip id="70" depart="70.00" from="166047912#2" to="563033813#1" />
    <trip id="71" depart="71.00" from="562510581#0" to="-299166992#8" />
    <trip id="72" depart="72.00" from="482567314#0" to="-165993489#0" />
    <trip id="73" depart="73.00" from="165994230#2" to="561837543#2" />
    <trip id="74" depart="74.00" from="482572463#0" to="-564393201#1" />
    <trip id="75" depart="75.00" from="-599372627" to="430277068" />
    <trip id="76" depart="76.00" from="165994531#5" to="430458754#2" />
    <trip id="77" depart="77.00" from="-482571754#1" to="235014856#0" />
    <trip id="78" depart="78.00" from="-599457691#0" to="-599409054#1" />
    <trip id="79" depart="79.00" from="430188611#7" to="166047918#0" />
    <trip id="80" depart="80.00" from="307176022#1" to="299592863#15" />
    <trip id="81" depart="81.00" from="599394754" to="-603463978" />
    <trip id="82" depart="82.00" from="302165056#8" to="-562500728" />
    <trip id="83" depart="83.00" from="307180201" to="169738591#0" />
    <trip id="84" depart="84.00" from="-599457691#0" to="-263292317#3" />
    <trip id="85" depart="85.00" from="-603702627" to="561857929" />
    <trip id="86" depart="86.00" from="-174491295#0" to="-209176698#0" />
    <trip id="87" depart="87.00" from="437868711" to="133871314" />
    <trip id="88" depart="88.00" from="-165993864#0" to="-179304562" />
    <trip id="89" depart="89.00" from="302165201#1" to="429538504" />
    <trip id="90" depart="90.00" from="-165993753#0" to="664517447" />
    <trip id="91" depart="91.00" from="-599457691#2" to="390052380#4" />
    <trip id="92" depart="92.00" from="-437867614#1" to="165993995#7" />
    <trip id="93" depart="93.00" from="564486952#2" to="-298918986#0" />
    <trip id="94" depart="94.00" from="-307176012#6" to="165994582#8" />
    <trip id="95" depart="95.00" from="165993782#11" to="-233878637#0" />
    <trip id="96" depart="96.00" from="165993813#1" to="617272137#1" />
    <trip id="97" depart="97.00" from="263292317#3" to="430759788#2" />
    <trip id="98" depart="98.00" from="-482571754#0" to="263292317#2" />
    <trip id="99" depart="99.00" from="-390052713#3" to="-599457895#0" />
    <trip id="100" depart="100.00" from="561837543#2" to="165994573#8" />
    <trip id="101" depart="101.00" from="390052388#1" to="165994327#0" />
    <trip id="102" depart="102.00" from="664517243#1" to="-599453836#1" />
    <trip id="103" depart="103.00" from="209176698#0" to="-165993590#0" />
    <trip id="104" depart="104.00" from="-563044685" to="599346307" />
    <trip id="105" depart="105.00" from="482571049" to="429895220" />
    <trip id="106" depart="106.00" from="165993949#5" to="599410580#1" />
    <trip id="107" depart="107.00" from="165994340#2" to="299592865#14" />
    <trip id="108" depart="108.00" from="-165993419#0" to="-233879719#7" />
    <trip id="109" depart="109.00" from="482572463#0" to="-299166990#0" />
    <trip id="110" depart="110.00" from="307180253#3" to="-169738591#0" />
    <trip id="111" depart="111.00" from="179304562" to="166047670#3" />
    <trip id="112" depart="112.00" from="-599407796#19" to="-437868454#1" />
    <trip id="113" depart="113.00" from="166047589#1" to="-561539052#0" />
    <trip id="114" depart="114.00" from="166045649#1" to="300655404#2" />
    <trip id="115" depart="115.00" from="233884332#1" to="-165994345#3" />
    <trip id="116" depart="116.00" from="618839154#3" to="-166047647#1" />
    <trip id="117" depart="117.00" from="233884332#1" to="165993958#0" />
    <trip id="118" depart="118.00" from="209176689#0" to="482571754#0" />
    <trip id="119" depart="119.00" from="166047920#3" to="-165993824#4" />
    <trip id="120" depart="120.00" from="-235014803#1" to="169738591#1" />
    <trip id="121" depart="121.00" from="-165994031#0" to="561837543#2" />
    <trip id="122" depart="122.00" from="482571754#0" to="-299592869#4" />
    <trip id="123" depart="123.00" from="165993460#8" to="299592846#1" />
    <trip id="124" depart="124.00" from="-235014850#1" to="-267432617" />
    <trip id="125" depart="125.00" from="599410580#1" to="-599419062#0" />
    <trip id="126" depart="126.00" from="165994691#3" to="-618839150#2" />
    <trip id="127" depart="127.00" from="430044844#1" to="-511317836" />
    <trip id="128" depart="128.00" from="165994423#8" to="-430109698#1" />
    <trip id="129" depart="129.00" from="-381622268#0" to="166047567#0" />
    <trip id="130" depart="130.00" from="-165994031#2" to="535290921#1" />
    <trip id="131" depart="131.00" from="-599407796#2" to="-235014860#2" />
    <trip id="132" depart="132.00" from="561854255" to="562620936#1" />
    <trip id="133" depart="133.00" from="482571754#1" to="165994291#10" />
    <trip id="134" depart="134.00" from="-599453836#0" to="-446168062#0" />
    <trip id="135" depart="135.00" from="-233882113#4" to="-599400475#3" />
    <trip id="136" depart="136.00" from="430124910#2" to="326601314" />
    <trip id="137" depart="137.00" from="482566073#0" to="-429498228#4" />
    <trip id="138" depart="138.00" from="-302165056#8" to="-603463097" />
    <trip id="139" depart="139.00" from="174491302#1" to="-562615152#0" />
    <trip id="140" depart="140.00" from="430124910#2" to="-603463978" />
    <trip id="141" depart="141.00" from="599453837#1" to="-165994401#1" />
    <trip id="142" depart="142.00" from="165993491#0" to="209176698#0" />
    <trip id="143" depart="143.00" from="166047792#2" to="165994150#0" />
    <trip id="144" depart="144.00" from="433949040" to="209176701#1" />
    <trip id="145" depart="145.00" from="434367537#1" to="-233882919#1" />
    <trip id="146" depart="146.00" from="-561978256#2" to="-165994211#1" />
    <trip id="147" depart="147.00" from="561857472#2" to="618839167#1" />
    <trip id="148" depart="148.00" from="209176701#1" to="-599457897" />
    <trip id="149" depart="149.00" from="599407796#2" to="-562510718#6" />
    <trip id="150" depart="150.00" from="326505126#0" to="-599409051#1" />
    <trip id="151" depart="151.00" from="-165993411#3" to="482571754#0" />
    <trip id="152" depart="152.00" from="-561837543#2" to="599409053#0" />
    <trip id="153" depart="153.00" from="165994694#1" to="446168056#2" />
    <trip id="154" depart="154.00" from="165993824#1" to="561542503#0" />
    <trip id="155" depart="155.00" from="-482571484#0" to="-299592838#1" />
    <trip id="156" depart="156.00" from="165993771#1" to="165993830#2" />
    <trip id="157" depart="157.00" from="298925880#1" to="302165487#3" />
    <trip id="158" depart="158.00" from="-298925880#0" to="166047596" />
    <trip id="159" depart="159.00" from="165994573#1" to="235014860#0" />
    <trip id="160" depart="160.00" from="-437867614#1" to="-307180238#0" />
    <trip id="161" depart="161.00" from="165993584#1" to="179304562" />
    <trip id="162" depart="162.00" from="-437868454#1" to="-437869361" />
    <trip id="163" depart="163.00" from="-430383444#2" to="307180237#2" />
    <trip id="164" depart="164.00" from="618839146#0" to="-235014833#0" />
    <trip id="165" depart="165.00" from="165993874#1" to="-165993903#10" />
    <trip id="166" depart="166.00" from="599407796#19" to="599400475#2" />
    <trip id="167" depart="167.00" from="-437867614#1" to="307180237#0" />
    <trip id="168" depart="168.00" from="-233879139#6" to="-165993888#3" />
    <trip id="169" depart="169.00" from="299167006" to="-233879388" />
    <trip id="170" depart="170.00" from="165993463#5" to="618839144#3" />
    <trip id="171" depart="171.00" from="-603463975#1" to="169738591#0" />
    <trip id="172" depart="172.00" from="-430213018#2" to="603702627" />
    <trip id="173" depart="173.00" from="326518716#2" to="-235014826" />
    <trip id="174" depart="174.00" from="174491292#1" to="561079701" />
    <trip id="175" depart="175.00" from="-165993901#0" to="430663391#5" />
    <trip id="176" depart="176.00" from="561849431#1" to="298918990#1" />
    <trip id="177" depart="177.00" from="-174491284#4" to="-165993947#0" />
    <trip id="178" depart="178.00" from="-326555060#0" to="618831275#15" />
    <trip id="179" depart="179.00" from="165993439#3" to="-263292156#3" />
    <trip id="180" depart="180.00" from="235014823#2" to="166047571#2" />
    <trip id="181" depart="181.00" from="-165993704#1" to="430267811" />
    <trip id="182" depart="182.00" from="430124903#0" to="307180243#1" />
    <trip id="183" depart="183.00" from="430663391#6" to="-430267941#1" />
    <trip id="184" depart="184.00" from="430769211#1" to="165994184#2" />
    <trip id="185" depart="185.00" from="-618839154#1" to="-446168074#2" />
    <trip id="186" depart="186.00" from="165994346#6" to="165994048#1" />
    <trip id="187" depart="187.00" from="-263292156#0" to="430440518#0" />
    <trip id="188" depart="188.00" from="-562620936#4" to="-482571754#0" />
    <trip id="189" depart="189.00" from="-599346307" to="-437868386#1" />
    <trip id="190" depart="190.00" from="-166047637#2" to="165994014#1" />
    <trip id="191" depart="191.00" from="561837543#2" to="-165993882#0" />
    <trip id="192" depart="192.00" from="-437869146#0" to="-430124927" />
    <trip id="193" depart="193.00" from="-446168057#4" to="562507770#4" />
    <trip id="194" depart="194.00" from="-390052376#0" to="429498259" />
    <trip id="195" depart="195.00" from="-482571048#1" to="299592870#1" />
    <trip id="196" depart="196.00" from="-165994509" to="482571754#0" />
    <trip id="197" depart="197.00" from="-599409054#1" to="-618839147#3" />
    <trip id="198" depart="198.00" from="235014820#1" to="165993891#3" />
    <trip id="199" depart="199.00" from="-165994697#3" to="-562510582" />
    <trip id="200" depart="200.00" from="599373874#1" to="599409055#0" />
    <trip id="201" depart="201.00" from="-179304562" to="165993600#3" />
    <trip id="202" depart="202.00" from="-165993883#1" to="482565505" />
    <trip id="203" depart="203.00" from="-233879139#2" to="165993995#7" />
    <trip id="204" depart="204.00" from="-563033815#1" to="-165993704#3" />
    <trip id="205" depart="205.00" from="-429785474#4" to="-263292317#1" />
    <trip id="206" depart="206.00" from="165994090#1" to="-599409053#1" />
    <trip id="207" depart="207.00" from="-299592842#0" to="-561540117#0" />
    <trip id="208" depart="208.00" from="-429965911#1" to="-430124910#0" />
    <trip id="209" depart="209.00" from="-165993805#2" to="-165994560#0" />
    <trip id="210" depart="210.00" from="-603454526#0" to="430653875#4" />
    <trip id="211" depart="211.00" from="564392638#8" to="-429498228#1" />
    <trip id="212" depart="212.00" from="299167005" to="-603463975#1" />
    <trip id="213" depart="213.00" from="174503065#2" to="298822621#0" />
    <trip id="214" depart="214.00" from="618839163" to="174503062#2" />
    <trip id="215" depart="215.00" from="-165994197#0" to="-437859832#3" />
    <trip id="216" depart="216.00" from="564451289" to="565570361#3" />
    <trip id="217" depart="217.00" from="-326386697#1" to="233879012#0" />
    <trip id="218" depart="218.00" from="166045979#1" to="-620736182" />
    <trip id="219" depart="219.00" from="-222385486#2" to="429498249" />
    <trip id="220" depart="220.00" from="-235014803#4" to="599407796#18" />
    <trip id="221" depart="221.00" from="-599458538" to="-599402182#0" />
    <trip id="222" depart="222.00" from="436392454#5" to="165993813#1" />
    <trip id="223" depart="223.00" from="165994161#0" to="-307180244#1" />
    <trip id="224" depart="224.00" from="165994494#12" to="-165994031#0" />
    <trip id="225" depart="225.00" from="530282724" to="-482567315#9" />
    <trip id="226" depart="226.00" from="165993483#1" to="307180262#0" />
    <trip id="227" depart="227.00" from="-233882943#2" to="-446168058#0" />
    <trip id="228" depart="228.00" from="-381622269#0" to="430203698" />
    <trip id="229" depart="229.00" from="561542503#2" to="165994401#2" />
    <trip id="230" depart="230.00" from="561999019#0" to="307180246#2" />
    <trip id="231" depart="231.00" from="233879388" to="-165993903#1" />
    <trip id="232" depart="232.00" from="430369391" to="300658848#2" />
    <trip id="233" depart="233.00" from="-620736188" to="430663391#6" />
    <trip id="234" depart="234.00" from="539649082" to="-437679373" />
    <trip id="235" depart="235.00" from="165994291#2" to="165994121#3" />
    <trip id="236" depart="236.00" from="446168069#0" to="-482571048#2" />
    <trip id="237" depart="237.00" from="165993971#1" to="430065932#0" />
    <trip id="238" depart="238.00" from="430458761#0" to="-564393201#0" />
    <trip id="239" depart="239.00" from="562509200" to="430046680" />
    <trip id="240" depart="240.00" from="-539646199#1" to="-564393201#1" />
    <trip id="241" depart="241.00" from="561539425#4" to="166047577#2" />
    <trip id="242" depart="242.00" from="-603453217#1" to="482571754#1" />
    <trip id="243" depart="243.00" from="564392220" to="433932565#1" />
    <trip id="244" depart="244.00" from="233878637#0" to="-561978747#0" />
    <trip id="245" depart="245.00" from="-303344482" to="-430117872" />
    <trip id="246" depart="246.00" from="-165994051#0" to="165994545#1" />
    <trip id="247" depart="247.00" from="-561542503#2" to="298925881#1" />
    <trip id="248" depart="248.00" from="174510896#0" to="299592855#3" />
    <trip id="249" depart="249.00" from="430450726#0" to="599409053#0" />
    <trip id="250" depart="250.00" from="-664517447" to="-599407796#6" />
    <trip id="251" depart="251.00" from="430379403" to="-165994211#1" />
    <trip id="252" depart="252.00" from="-599458765#1" to="165994733#1" />
    <trip id="253" depart="253.00" from="562615151#1" to="562616041#5" />
    <trip id="254" depart="254.00" from="165993490#0" to="-430440528#0" />
    <trip id="255" depart="255.00" from="165993764" to="166047589#1" />
    <trip id="256" depart="256.00" from="-235014826" to="233882919#1" />
    <trip id="257" depart="257.00" from="620736186#0" to="-165994580#1" />
    <trip id="258" depart="258.00" from="-509467056#1" to="-166045647#1" />
    <trip id="259" depart="259.00" from="-664517483#1" to="-165994544#2" />
    <trip id="260" depart="260.00" from="-165994092#1" to="233882218#1" />
    <trip id="261" depart="261.00" from="-299592873#0" to="-298882781#0" />
    <trip id="262" depart="262.00" from="209176701#1" to="326619630#0" />
    <trip id="263" depart="263.00" from="-603702627" to="302165582" />
    <trip id="264" depart="264.00" from="-307180231#1" to="430269141#0" />
    <trip id="265" depart="265.00" from="165993460#5" to="-165994229#0" />
    <trip id="266" depart="266.00" from="530282724" to="-599410580#1" />
    <trip id="267" depart="267.00" from="165994610#1" to="209176689#1" />
    <trip id="268" depart="268.00" from="-561837543#1" to="561857929" />
    <trip id="269" depart="269.00" from="174510896#0" to="-430759786" />
    <trip id="270" depart="270.00" from="165994573#5" to="603454526#1" />
    <trip id="271" depart="271.00" from="-482571843#2" to="165994195#0" />
    <trip id="272" depart="272.00" from="-166045651#2" to="-298882776" />
    <trip id="273" depart="273.00" from="165994597" to="169738591#1" />
    <trip id="274" depart="274.00" from="-233877228#5" to="-562615139#3" />
    <trip id="275" depart="275.00" from="174510896#0" to="-298918986#4" />
    <trip id="276" depart="276.00" from="-482571049" to="165994627#3" />
    <trip id="277" depart="277.00" from="-561837543#1" to="-165994219#1" />
    <trip id="278" depart="278.00" from="166047719#1" to="-561850495#0" />
    <trip id="279" depart="279.00" from="430450740" to="434367839" />
    <trip id="280" depart="280.00" from="446168056#2" to="564393201#0" />
    <trip id="281" depart="281.00" from="-326607276#5" to="166047567#10" />
    <trip id="282" depart="282.00" from="-664517391" to="-233881911#9" />
    <trip id="283" depart="283.00" from="165993560#0" to="-599400476#3" />
    <trip id="284" depart="284.00" from="617271974" to="165994166#3" />
    <trip id="285" depart="285.00" from="-564393201#1" to="-302165056#6" />
    <trip id="286" depart="286.00" from="482567315#3" to="482571484#8" />
    <trip id="287" depart="287.00" from="482571484#8" to="165993846" />
    <trip id="288" depart="288.00" from="165994316#1" to="-299166990#1" />
    <trip id="289" depart="289.00" from="179304562" to="-233882219#3" />
    <trip id="290" depart="290.00" from="165993888#4" to="-537670452#3" />
    <trip id="291" depart="291.00" from="437867614#1" to="-482567315#9" />
    <trip id="292" depart="292.00" from="165993837#1" to="165994529#1" />
    <trip id="293" depart="293.00" from="165993440#1" to="-233879438#2" />
    <trip id="294" depart="294.00" from="618816384" to="235014803#3" />
    <trip id="295" depart="295.00" from="307176012#0" to="-429538504" />
    <trip id="296" depart="296.00" from="430369390" to="482571754#0" />
    <trip id="297" depart="297.00" from="165993446#13" to="-165994610#0" />
    <trip id="298" depart="298.00" from="165994249#4" to="149504403" />
    <trip id="299" depart="299.00" from="-179304562" to="-599457693" />
    <trip id="300" depart="300.00" from="-430131593#4" to="537670452#2" />
    <trip id="301" depart="301.00" from="-561837543#2" to="-430188618" />
    <trip id="302" depart="302.00" from="437868463" to="-302165056#6" />
    <trip id="303" depart="303.00" from="-299592863#15" to="-165993902#5" />
    <trip id="304" depart="304.00" from="-166047650#5" to="430653889" />
    <trip id="305" depart="305.00" from="664517620#0" to="174398821#5" />
    <trip id="306" depart="306.00" from="-561978747#0" to="-165993808#0" />
    <trip id="307" depart="307.00" from="429538504" to="430653888" />
    <trip id="308" depart="308.00" from="-430201122" to="618831275#3" />
    <trip id="309" depart="309.00" from="599458444#0" to="-539646199#1" />
    <trip id="310" depart="310.00" from="430119313#1" to="430786889#1" />
    <trip id="311" depart="311.00" from="-561837543#2" to="-564392927" />
    <trip id="312" depart="312.00" from="482571754#0" to="-482571048#1" />
    <trip id="313" depart="313.00" from="-165994347#1" to="233883363#1" />
    <trip id="314" depart="314.00" from="-482566073#3" to="165994316#1" />
    <trip id="315" depart="315.00" from="-179304562" to="165994185#6" />
    <trip id="316" depart="316.00" from="165993423#3" to="-233887068" />
    <trip id="317" depart="317.00" from="429785467" to="561837543#2" />
    <trip id="318" depart="318.00" from="603463097" to="-603463975#0" />
    <trip id="319" depart="319.00" from="599458444#1" to="599457691#5" />
    <trip id="320" depart="320.00" from="174503066#3" to="326555060#1" />
    <trip id="321" depart="321.00" from="-235014847#1" to="222385464#0" />
    <trip id="322" depart="322.00" from="-166047616#0" to="165993893#1" />
    <trip id="323" depart="323.00" from="-599371972#1" to="434369936#1" />
    <trip id="324" depart="324.00" from="-561540113#1" to="-430379418#1" />
    <trip id="325" depart="325.00" from="165994160#6" to="-599453836#2" />
    <trip id="326" depart="326.00" from="-430044821#3" to="-599400475#3" />
    <trip id="327" depart="327.00" from="482571843#2" to="165994649#4" />
    <trip id="328" depart="328.00" from="390052380#0" to="-446168080#2" />
    <trip id="329" depart="329.00" from="-299167003#0" to="307180191#2" />
    <trip id="330" depart="330.00" from="165993901#0" to="222527482#1" />
    <trip id="331" depart="331.00" from="165994218#4" to="436389913" />
    <trip id="332" depart="332.00" from="-564137433#1" to="-430769212#2" />
    <trip id="333" depart="333.00" from="620736188" to="430117885#2" />
    <trip id="334" depart="334.00" from="-165993894#1" to="233879978" />
    <trip id="335" depart="335.00" from="430201116#1" to="429498238#2" />
    <trip id="336" depart="336.00" from="-430269141#0" to="603453217#1" />
    <trip id="337" depart="337.00" from="307176013#7" to="-564393201#1" />
    <trip id="338" depart="338.00" from="-563033818#1" to="618839160#4" />
    <trip id="339" depart="339.00" from="-165994384" to="430266170" />
    <trip id="340" depart="340.00" from="165994189#10" to="430383444#2" />
    <trip id="341" depart="341.00" from="179304562" to="603702627" />
    <trip id="342" depart="342.00" from="-165994733#2" to="165993863#2" />
    <trip id="343" depart="343.00" from="561850495#1" to="233877937" />
    <trip id="344" depart="344.00" from="-564451283#0" to="166047780#4" />
    <trip id="345" depart="345.00" from="263292144#0" to="482572463#2" />
    <trip id="346" depart="346.00" from="-618839147#1" to="-561978747#0" />
    <trip id="347" depart="347.00" from="430653879" to="165993890#8" />
    <trip id="348" depart="348.00" from="-429498240#1" to="-603463981" />
    <trip id="349" depart="349.00" from="165993752" to="-233879978" />
    <trip id="350" depart="350.00" from="-233879978" to="-562615137#1" />
    <trip id="351" depart="351.00" from="-603463978" to="-302165056#1" />
    <trip id="352" depart="352.00" from="429785474#4" to="618839147#3" />
    <trip id="353" depart="353.00" from="603453217#1" to="-166047681#1" />
    <trip id="354" depart="354.00" from="174398827#1" to="-299592839#1" />
    <trip id="355" depart="355.00" from="618839174#2" to="165993561#1" />
    <trip id="356" depart="356.00" from="267432626" to="-562615143" />
    <trip id="357" depart="357.00" from="-564453866#1" to="-482567315#9" />
    <trip id="358" depart="358.00" from="233877934" to="-429895206#2" />
    <trip id="359" depart="359.00" from="-561978747#0" to="165994573#5" />
    <trip id="360" depart="360.00" from="-429498253" to="603454526#1" />
    <trip id="361" depart="361.00" from="195110437#0" to="165994108#8" />
    <trip id="362" depart="362.00" from="430383451#3" to="-618831275#1" />
    <trip id="363" depart="363.00" from="165993534#0" to="599453838#1" />
    <trip id="364" depart="364.00" from="599407796#19" to="-620736186#0" />
    <trip id="365" depart="365.00" from="165993446#7" to="-165993856#1" />
    <trip id="366" depart="366.00" from="166047768" to="165993487#0" />
    <trip id="367" depart="367.00" from="618839168#1" to="-482567315#8" />
    <trip id="368" depart="368.00" from="564451289" to="-326565430#1" />
    <trip id="369" depart="369.00" from="617272016#6" to="-430044819#1" />
    <trip id="370" depart="370.00" from="307180255#1" to="307180221#1" />
    <trip id="371" depart="371.00" from="233882117#1" to="561079701" />
    <trip id="372" depart="372.00" from="563033818#1" to="436389913" />
    <trip id="373" depart="373.00" from="263292316#4" to="179304562" />
    <trip id="374" depart="374.00" from="165994511#0" to="165993985#6" />
    <trip id="375" depart="375.00" from="-561849431#1" to="-302165056#8" />
    <trip id="376" depart="376.00" from="599407796#6" to="165994545#1" />
    <trip id="377" depart="377.00" from="326505124#0" to="165993594#3" />
    <trip id="378" depart="378.00" from="-664517487#0" to="430044832#1" />
    <trip id="379" depart="379.00" from="618839147#0" to="165993439#2" />
    <trip id="380" depart="380.00" from="-482567315#2" to="-165994733#0" />
    <trip id="381" depart="381.00" from="-166047913#6" to="-618839173" />
    <trip id="382" depart="382.00" from="263292144#0" to="307180240" />
    <trip id="383" depart="383.00" from="-165994545#1" to="-165994445#1" />
    <trip id="384" depart="384.00" from="599373874#1" to="233890616" />
    <trip id="385" depart="385.00" from="430384614#0" to="298925881#2" />
    <trip id="386" depart="386.00" from="174510896#6" to="-561539653#1" />
    <trip id="387" depart="387.00" from="-165993754#3" to="326607285#2" />
    <trip id="388" depart="388.00" from="326408922" to="-617272122#0" />
    <trip id="389" depart="389.00" from="-603463975#0" to="-302165056#8" />
    <trip id="390" depart="390.00" from="209176701#1" to="326408921#0" />
    <trip id="391" depart="391.00" from="430124910#2" to="-165994015#0" />
    <trip id="392" depart="392.00" from="-233877934" to="-430044872" />
    <trip id="393" depart="393.00" from="482571754#0" to="-165993987#0" />
    <trip id="394" depart="394.00" from="165993937" to="561837543#2" />
    <trip id="395" depart="395.00" from="-599402181#2" to="165994494#3" />
    <trip id="396" depart="396.00" from="179304562" to="599457691#4" />
    <trip id="397" depart="397.00" from="-618839167#1" to="-430203699" />
    <trip id="398" depart="398.00" from="233882919#3" to="-166047858#0" />
    <trip id="399" depart="399.00" from="-482571049" to="165993602#9" />
    <trip id="400" depart="400.00" from="165994419#4" to="-561539423#1" />
    <trip id="401" depart="401.00" from="165993877#3" to="169738591#0" />
    <trip id="402" depart="402.00" from="302165056#8" to="429965917#2" />
    <trip id="403" depart="403.00" from="302165056#8" to="-233877470#5" />