<?xml version="1.0" encoding="UTF-8"?>

<!-- generated on Thu Mar 14 11:09:33 2019 by SUMO polyconvert Version 0.32.0
<?xml version="1.0" encoding="UTF-8"?>

<configuration xmlns:xsi="http://www.w3.org/2001/XMLSchema-instance" xsi:noNamespaceSchemaLocation="http://sumo.dlr.de/xsd/polyconvertConfiguration.xsd">

    <input>
        <net-file value="map.net.xml"/>
        <osm-files value="map.osm"/>
        <type-file value="typemap.xml"/>
    </input>

    <output>
        <output-file value="map.poly.xml"/>
    </output>

    <processing>
        <poi-layer-offset value="5"/>
    </processing>

    <report>
        <xml-validation value="never"/>
    </report>

</configuration>
-->

<additional xmlns:xsi="http://www.w3.org/2001/XMLSchema-instance" xsi:noNamespaceSchemaLocation="http://sumo.dlr.de/xsd/additional_file.xsd">
    <location netOffset="-697421.73,2350586.08" convBoundary="-130206.16,-60576.28,85472.89,154437.98" origBoundary="-50.357991,-21.781613,-48.264255,-19.860257" projParameter="+proj=utm +zone=22 +ellps=WGS84 +datum=WGS84 +units=m +no_defs"/>

    <poly id="165994205" type="industrial" color="209,209,204" fill="0" layer="-3.00" shape="11330.90,13241.60 11298.91,13141.34 11270.59,13052.77"/>
    <poly id="165994217" type="industrial" color="209,209,204" fill="0" layer="-3.00" shape="11330.90,13241.60 11374.31,13372.46 11417.27,13499.64"/>
    <poly id="165994708" type="industrial" color="209,209,204" fill="0" layer="-3.00" shape="11451.68,13561.86 11529.77,13495.99 11537.01,13490.15 11677.05,13367.88 11751.60,13302.80"/>
    <poly id="174491311" type="aeroway" color="grey" fill="0" layer="-2.00" shape="11020.85,10195.69 11833.82,11014.88 11837.88,11018.75"/>
    <poly id="179295471" type="water" color="181,209,209" fill="0" layer="-4.00" shape="16713.97,9260.15 16676.46,9299.47 16617.14,9302.83 16571.59,9284.26 16503.08,9302.76 16472.17,9329.04 16427.21,9275.26 16365.51,9296.77 16349.94,9380.85 16302.40,9449.82 16266.73,9510.86 16229.88,9560.53 16138.85,9650.25 16087.95,9700.61 16046.57,9721.87 15987.08,9712.79 15916.67,9685.30 15831.45,9720.51 15749.26,9768.16 15686.13,9881.34 15621.07,9923.60 15574.10,9955.62 15554.47,9969.00 15514.55,9991.45 15470.97,10036.87 15438.06,10049.04 15423.89,10061.82 15397.49,10114.45 15400.91,10177.58 15397.58,10241.83 15416.29,10320.29 15424.83,10376.62 15382.72,10422.73 15357.31,10448.97 15357.11,10468.39 15364.74,10477.87 15359.75,10490.52 15354.41,10529.24 15355.33,10574.36 15355.31,10615.59 15332.58,10666.08 15291.98,10724.75 15253.13,10775.49 15217.49,10809.30 15201.53,10857.59 15188.00,10870.65 15166.50,10901.38 15144.91,10923.93 15171.26,10946.89 15160.50,10961.01 15129.44,10976.42 15130.20,10995.05 15148.16,11053.86 15138.27,11094.90 15106.31,11121.19 15010.49,11162.82 14988.08,11162.07 14968.07,11185.63 14944.04,11220.64 14897.25,11227.45 14781.05,11264.15 14729.65,11276.73 14687.16,11305.24"/>
    <poly id="233883959" type="leisure" color="207,245,201" fill="1" layer="-2.00" shape="19914.47,6752.49 19853.25,6660.33 20015.80,6553.59 20046.74,6600.16 20009.24,6624.79 20039.53,6670.37 19914.47,6752.49"/>
    <poly id="233886410" type="building" color="255,230,230" fill="1" layer="-1.00" shape="17859.44,7682.45 17876.93,7657.90 17867.48,7651.25 17849.98,7675.78 17859.44,7682.45"/>
    <poly id="233886411" type="building" color="255,230,230" fill="1" layer="-1.00" shape="17840.05,7695.06 17852.37,7704.24 17859.00,7695.42 17846.69,7686.25 17840.05,7695.06"/>
    <poly id="233886412" type="building" color="255,230,230" fill="1" layer="-1.00" shape="17731.92,7540.11 17752.56,7555.49 17774.66,7523.87 17754.57,7508.48 17731.92,7540.11"/>
    <poly id="233886413" type="building" color="255,230,230" fill="1" layer="-1.00" shape="17911.06,7716.45 17924.28,7697.61 17915.44,7691.50 17902.22,7710.33 17911.06,7716.45"/>
    <poly id="233886414" type="building" color="255,230,230" fill="1" layer="-1.00" shape="17853.40,7716.43 17865.73,7725.72 17871.28,7718.44 17858.97,7709.15 17853.40,7716.43"/>
    <poly id="233886415" type="building" color="255,230,230" fill="1" layer="-1.00" shape="17798.58,7639.89 17815.72,7616.11 17806.68,7609.67 17789.54,7633.46 17798.58,7639.89"/>
    <poly id="233886416" type="building" color="255,230,230" fill="1" layer="-1.00" shape="17935.96,7721.22 17947.91,7706.17 17939.59,7699.65 17927.65,7714.70 17935.96,7721.22"/>
    <poly id="233886492" type="building" color="255,230,230" fill="1" layer="-1.00" shape="17597.76,7779.23 17612.46,7787.52 17620.46,7773.52 17605.75,7765.23 17597.76,7779.23"/>
    <poly id="233886493" type="building" color="255,230,230" fill="1" layer="-1.00" shape="17747.07,7923.84 17765.47,7936.94 17772.09,7927.72 17753.69,7914.64 17747.07,7923.84"/>
    <poly id="233886494" type="building" color="255,230,230" fill="1" layer="-1.00" shape="18056.51,7699.65 18074.77,7675.10 18065.08,7667.97 18046.82,7692.53 18056.51,7699.65"/>
    <poly id="233886712" type="building" color="255,230,230" fill="1" layer="-1.00" shape="18729.12,6817.69 18742.90,6825.51 18747.18,6818.04 18733.41,6810.22 18729.12,6817.69"/>
    <poly id="233886714" type="building" color="255,230,230" fill="1" layer="-1.00" shape="18602.44,6795.52 18609.75,6801.56 18619.32,6790.09 18612.00,6784.05 18602.44,6795.52"/>
    <poly id="233886716" type="building" color="255,230,230" fill="1" layer="-1.00" shape="18706.60,6776.94 18725.78,6788.02 18730.00,6780.80 18710.82,6769.72 18706.60,6776.94"/>
    <poly id="233886718" type="building" color="255,230,230" fill="1" layer="-1.00" shape="18751.99,6833.51 18765.91,6842.27 18771.45,6833.55 18757.53,6824.79 18751.99,6833.51"/>
    <poly id="233886720" type="building" color="255,230,230" fill="1" layer="-1.00" shape="18768.80,6868.88 18780.84,6876.72 18785.56,6869.54 18773.53,6861.71 18768.80,6868.88"/>
    <poly id="233886721" type="building" color="255,230,230" fill="1" layer="-1.00" shape="18581.67,6727.14 18589.67,6733.03 18596.31,6724.12 18588.33,6718.23 18581.67,6727.14"/>
    <poly id="233886724" type="building" color="255,230,230" fill="1" layer="-1.00" shape="18734.23,6808.83 18744.90,6815.09 18748.79,6808.53 18738.12,6802.28 18734.23,6808.83"/>
    <poly id="233886726" type="building" color="255,230,230" fill="1" layer="-1.00" shape="18783.87,6842.83 18798.20,6851.70 18803.32,6843.54 18788.99,6834.67 18783.87,6842.83"/>
    <poly id="233886727" type="building" color="255,230,230" fill="1" layer="-1.00" shape="18658.18,6743.86 18666.83,6749.21 18671.46,6741.80 18662.81,6736.45 18658.18,6743.86"/>
    <poly id="233886786" type="building" color="255,230,230" fill="1" layer="-1.00" shape="18554.00,6753.20 18560.94,6757.74 18573.12,6739.36 18554.99,6726.39 18552.10,6730.97 18554.00,6753.20"/>
    <poly id="233886869" type="building" color="255,230,230" fill="1" layer="-1.00" shape="19249.46,6702.62 19267.25,6731.17 19290.43,6716.89 19272.63,6688.33 19249.46,6702.62"/>
    <poly id="233886871" type="building" color="255,230,230" fill="1" layer="-1.00" shape="19282.68,6680.59 19294.46,6700.16 19305.59,6693.53 19293.82,6673.96 19282.68,6680.59"/>
    <poly id="233886960" type="building" color="255,230,230" fill="1" layer="-1.00" shape="19376.01,6591.18 19393.15,6579.36 19384.91,6567.55 19367.77,6579.37 19376.01,6591.18"/>
    <poly id="233886962" type="building" color="255,230,230" fill="1" layer="-1.00" shape="19414.07,6529.61 19435.11,6515.39 19429.91,6507.79 19408.87,6522.02 19414.07,6529.61"/>
    <poly id="233886963" type="building" color="255,230,230" fill="1" layer="-1.00" shape="19464.62,6525.18 19483.22,6512.12 19476.40,6502.53 19457.81,6515.59 19464.62,6525.18"/>
    <poly id="233886965" type="building" color="255,230,230" fill="1" layer="-1.00" shape="19360.72,6570.19 19367.27,6578.59 19382.93,6566.53 19376.38,6558.12 19360.72,6570.19"/>
    <poly id="233886967" type="building" color="255,230,230" fill="1" layer="-1.00" shape="19455.89,6510.60 19473.38,6499.25 19467.47,6490.25 19449.99,6501.60 19455.89,6510.60"/>
    <poly id="233887046" type="building" color="255,230,230" fill="1" layer="-1.00" shape="19965.95,6409.30 19976.93,6401.97 19955.87,6370.79 19944.90,6378.12 19965.95,6409.30"/>
    <poly id="233887047" type="building" color="255,230,230" fill="1" layer="-1.00" shape="19882.89,6393.61 19903.64,6421.85 19918.72,6410.91 19897.96,6382.67 19882.89,6393.61"/>
    <poly id="233887048" type="building" color="255,230,230" fill="1" layer="-1.00" shape="19950.27,6420.44 19959.86,6413.93 19939.89,6384.88 19930.32,6391.39 19950.27,6420.44"/>
    <poly id="233887049" type="building" color="255,230,230" fill="1" layer="-1.00" shape="19962.43,6447.47 19993.80,6427.33 19979.21,6404.86 19947.84,6425.00 19962.43,6447.47"/>
    <poly id="233887050" type="building" color="255,230,230" fill="1" layer="-1.00" shape="19917.86,6381.68 19933.30,6373.22 19928.96,6365.40 19913.52,6373.87 19917.86,6381.68"/>
    <poly id="233887408" type="building" color="255,230,230" fill="1" layer="-1.00" shape="20036.52,6365.07 20055.72,6352.67 20042.58,6332.59 20023.39,6344.99 20036.52,6365.07"/>
    <poly id="233887410" type="building" color="255,230,230" fill="1" layer="-1.00" shape="20138.80,6415.43 20165.08,6396.71 20152.51,6379.28 20126.23,6398.01 20138.80,6415.43"/>
    <poly id="233888166" type="building" color="255,230,230" fill="1" layer="-1.00" shape="20571.77,6651.05 20591.22,6642.26 20576.05,6609.05 20556.60,6617.83 20571.77,6651.05"/>
    <poly id="233888168" type="building" color="255,230,230" fill="1" layer="-1.00" shape="20353.92,6444.06 20364.53,6436.98 20355.83,6424.09 20345.22,6431.16 20353.92,6444.06"/>
    <poly id="233888170" type="building" color="255,230,230" fill="1" layer="-1.00" shape="20283.64,6450.41 20304.08,6436.92 20285.14,6408.52 20264.70,6422.01 20283.64,6450.41"/>
    <poly id="233888172" type="building" color="255,230,230" fill="1" layer="-1.00" shape="20457.22,6618.92 20476.56,6607.83 20445.27,6553.87 20425.94,6564.95 20457.22,6618.92"/>
    <poly id="233888174" type="building" color="255,230,230" fill="1" layer="-1.00" shape="20348.00,6425.85 20361.11,6416.98 20344.10,6392.13 20330.98,6401.01 20348.00,6425.85"/>
    <poly id="233888388" type="building" color="255,230,230" fill="1" layer="-1.00" shape="20554.46,6392.08 20569.54,6380.62 20548.31,6353.02 20533.24,6364.47 20554.46,6392.08"/>
    <poly id="233888639" type="building" color="255,230,230" fill="1" layer="-1.00" shape="20679.16,6712.40 20686.51,6725.67 20697.38,6719.72 20690.03,6706.45 20679.16,6712.40"/>
    <poly id="233888717" type="building" color="255,230,230" fill="1" layer="-1.00" shape="21572.42,6824.56 21581.56,6832.00 21578.84,6835.31 21585.71,6840.89 21589.08,6836.80 21603.45,6848.49 21612.83,6837.08 21610.09,6834.86 21617.02,6826.44 21602.40,6814.55 21595.55,6822.87 21582.53,6812.29 21572.42,6824.56"/>
    <poly id="233888833" type="building" color="255,230,230" fill="1" layer="-1.00" shape="20688.52,6352.26 20694.77,6363.07 20707.44,6355.83 20703.66,6349.30 20705.95,6347.99 20703.47,6343.71 20688.52,6352.26"/>
    <poly id="233890609" type="building" color="255,230,230" fill="1" layer="-1.00" shape="16042.94,8962.37 16049.78,8969.20 16076.78,8942.50 16069.95,8935.66 16042.94,8962.37"/>
    <poly id="233890610" type="building" color="255,230,230" fill="1" layer="-1.00" shape="16080.26,9001.37 16085.17,9012.16 16096.68,9006.98 16091.78,8996.19 16080.26,9001.37"/>
    <poly id="233890611" type="building" color="255,230,230" fill="1" layer="-1.00" shape="16023.99,9106.70 16058.55,9094.61 16053.64,9080.73 16019.08,9092.82 16023.99,9106.70"/>
    <poly id="233890612" type="building" color="255,230,230" fill="1" layer="-1.00" shape="16099.58,9006.84 16107.54,9024.09 16118.78,9018.96 16110.81,9001.71 16099.58,9006.84"/>
    <poly id="233890613" type="building" color="255,230,230" fill="1" layer="-1.00" shape="16021.45,9073.92 16026.12,9087.52 16032.62,9085.32 16027.96,9071.72 16021.45,9073.92"/>
    <poly id="233967660" type="building" color="255,230,230" fill="1" layer="-1.00" shape="13066.78,11147.62 13080.54,11141.12 13070.60,11120.33 13056.85,11126.83 13059.78,11132.97 13066.78,11147.62"/>
    <poly id="233967660#1" type="shop" color="237,199,255" fill="1" layer="-1.00" shape="13066.78,11147.62 13080.54,11141.12 13070.60,11120.33 13056.85,11126.83 13059.78,11132.97 13066.78,11147.62"/>
    <poly id="233967662" type="building" color="255,230,230" fill="1" layer="-1.00" shape="13037.38,11098.97 13057.89,11088.44 13048.84,11071.00 13028.33,11081.53 13037.38,11098.97"/>
    <poly id="233967663" type="building" color="255,230,230" fill="1" layer="-1.00" shape="12890.18,11137.49 12915.28,11129.29 12912.09,11119.65 12886.99,11127.84 12890.18,11137.49"/>
    <poly id="233967665" type="building" color="255,230,230" fill="1" layer="-1.00" shape="13006.73,11046.29 13024.05,11060.24 13031.64,11050.93 13014.31,11036.98 13006.73,11046.29"/>
    <poly id="235014804" type="amenity" color="237,199,199" fill="1" layer="-1.00" shape="19707.03,6430.70 19705.01,6427.66 19710.90,6423.78 19710.90,6421.14 19715.37,6418.17 19717.73,6419.03 19718.91,6420.76 19734.98,6410.00 19738.75,6415.58 19742.42,6413.13 19746.12,6418.58 19742.39,6421.07 19741.53,6419.81 19725.51,6430.53 19727.81,6433.92 19727.09,6435.62 19722.61,6438.61 19720.52,6438.20 19714.30,6442.29 19712.09,6438.98 19710.58,6438.20 19707.00,6432.91 19707.03,6430.70"/>
    <poly id="235014804#1" type="building" color="255,230,230" fill="1" layer="-1.00" shape="19707.03,6430.70 19705.01,6427.66 19710.90,6423.78 19710.90,6421.14 19715.37,6418.17 19717.73,6419.03 19718.91,6420.76 19734.98,6410.00 19738.75,6415.58 19742.42,6413.13 19746.12,6418.58 19742.39,6421.07 19741.53,6419.81 19725.51,6430.53 19727.81,6433.92 19727.09,6435.62 19722.61,6438.61 19720.52,6438.20 19714.30,6442.29 19712.09,6438.98 19710.58,6438.20 19707.00,6432.91 19707.03,6430.70"/>
    <poly id="235014807" type="tourism" color="207,245,201" fill="1" layer="-2.00" shape="19806.87,6426.53 19807.80,6424.84 19807.01,6423.04 19757.69,6349.35 19755.77,6348.01 19679.09,6397.97 19677.93,6399.08 19677.67,6401.27 19678.50,6402.78 19727.46,6476.04 19729.81,6476.96 19805.84,6427.28 19806.87,6426.53"/>
    <poly id="235014811" type="amenity" color="237,199,199" fill="1" layer="-1.00" shape="19733.24,6889.75 19731.94,6888.02 19723.75,6893.87 19728.78,6900.51 19729.43,6900.07 19869.87,7086.65 19925.78,7049.34 19786.23,6853.43 19738.63,6882.83 19739.02,6884.48 19738.89,6886.38 19733.77,6889.74 19733.24,6889.75"/>
    <poly id="235014892" type="tourism" color="207,245,201" fill="1" layer="-2.00" shape="20037.61,6400.11 20038.53,6398.86 20038.64,6397.60 19989.40,6322.56 19986.80,6319.90 19985.05,6320.36 19956.31,6340.26 19956.63,6357.43 19957.16,6358.76 19994.74,6415.25 20000.80,6418.88 20003.81,6419.87 20007.75,6419.92 20037.61,6400.11"/>
    <poly id="235014997" type="leisure" color="207,245,201" fill="1" layer="-2.00" shape="20640.71,6563.92 20701.65,6523.91 20702.36,6523.31 20702.87,6522.73 20703.59,6521.63 20703.50,6520.18 20702.89,6518.88 20646.75,6434.29 20645.12,6432.85 20644.09,6432.72 20641.38,6432.90 20640.15,6433.57 20580.73,6472.33 20579.58,6473.95 20579.16,6475.41 20579.12,6477.74 20579.89,6479.84 20633.02,6558.72 20636.45,6563.26 20638.81,6564.03 20640.71,6563.92"/>
    <poly id="235014997#1" type="sport" color="79,230,125" fill="1" layer="-2.00" shape="20640.71,6563.92 20701.65,6523.91 20702.36,6523.31 20702.87,6522.73 20703.59,6521.63 20703.50,6520.18 20702.89,6518.88 20646.75,6434.29 20645.12,6432.85 20644.09,6432.72 20641.38,6432.90 20640.15,6433.57 20580.73,6472.33 20579.58,6473.95 20579.16,6475.41 20579.12,6477.74 20579.89,6479.84 20633.02,6558.72 20636.45,6563.26 20638.81,6564.03 20640.71,6563.92"/>
    <poly id="235015007" type="leisure" color="207,245,201" fill="1" layer="-2.00" shape="19962.95,6611.93 20001.76,6671.08 19912.38,6729.04 19873.58,6669.88 19962.95,6611.93"/>
    <poly id="235015007#1" type="sport" color="79,230,125" fill="1" layer="-2.00" shape="19962.95,6611.93 20001.76,6671.08 19912.38,6729.04 19873.58,6669.88 19962.95,6611.93"/>
    <poly id="235015021" type="leisure" color="207,245,201" fill="1" layer="-2.00" shape="20734.68,6537.39 20646.42,6412.43 20564.84,6465.48 20563.63,6467.34 20563.36,6470.54 20563.82,6474.03 20643.43,6594.05 20646.97,6595.25 20734.68,6537.39"/>
    <poly id="263292328" type="landuse" color="194,194,130" fill="1" layer="-3.00" shape="8117.46,12251.53 8126.45,12245.00 8132.24,12235.55 8133.95,12224.61 8131.34,12213.85 8124.76,12204.91 8115.26,12199.15 8104.25,12197.45 8093.44,12200.06 8084.44,12206.59 8078.65,12216.04 8076.93,12226.98 8079.56,12237.73 8086.12,12246.68 8095.63,12252.44 8106.63,12254.14 8117.46,12251.53"/>
    <poly id="263292343" type="leisure" color="207,245,201" fill="1" layer="-2.00" shape="5948.66,12388.12 5925.94,12329.60 5965.43,12314.44 5988.15,12372.96 5948.66,12388.12"/>
    <poly id="263292343#1" type="sport" color="79,230,125" fill="1" layer="-2.00" shape="5948.66,12388.12 5925.94,12329.60 5965.43,12314.44 5988.15,12372.96 5948.66,12388.12"/>
    <poly id="267431707" type="building" color="255,230,230" fill="1" layer="-1.00" shape="11212.00,9496.11 11211.04,9497.02 11207.36,9493.16 11214.23,9486.69 11219.05,9491.76 11213.14,9497.32 11212.00,9496.11"/>
    <poly id="267431841" type="building" color="255,230,230" fill="1" layer="-1.00" shape="11153.06,9532.48 11156.35,9536.10 11163.91,9529.31 11160.91,9526.02 11162.62,9524.48 11159.22,9520.74 11153.52,9525.85 11156.63,9529.27 11153.06,9532.48"/>
    <poly id="267431876" type="building" color="255,230,230" fill="1" layer="-1.00" shape="11159.42,9535.86 11165.20,9542.03 11172.49,9535.29 11166.71,9529.11 11159.42,9535.86"/>
    <poly id="267432199" type="amenity" color="237,199,199" fill="1" layer="-1.00" shape="11202.88,9576.08 11223.95,9557.76 11265.18,9604.66 11256.73,9612.01 11264.14,9620.44 11257.76,9625.99 11261.44,9630.18 11255.21,9635.61 11202.88,9576.08"/>
    <poly id="267432199#1" type="building" color="255,230,230" fill="1" layer="-1.00" shape="11202.88,9576.08 11223.95,9557.76 11265.18,9604.66 11256.73,9612.01 11264.14,9620.44 11257.76,9625.99 11261.44,9630.18 11255.21,9635.61 11202.88,9576.08"/>
    <poly id="302164997" type="leisure" color="207,245,201" fill="1" layer="-2.00" shape="12117.15,13703.28 12127.45,13678.26 12170.28,13695.66 12159.99,13720.69 12117.15,13703.28"/>
    <poly id="302164997#1" type="sport" color="79,230,125" fill="1" layer="-2.00" shape="12117.15,13703.28 12127.45,13678.26 12170.28,13695.66 12159.99,13720.69 12117.15,13703.28"/>
    <poly id="302165564" type="landuse" color="194,194,130" fill="1" layer="-3.00" shape="12580.90,14224.04 12584.99,14223.74 12589.03,14224.44 12592.78,14226.06 12596.04,14228.52 12598.61,14231.70 12600.34,14235.40 12601.13,14239.39 12600.93,14243.46 12599.76,14247.37 12597.69,14250.88 12594.83,14253.80 12591.35,14255.96 12587.45,14257.21 12583.36,14257.51 12579.32,14256.83 12575.57,14255.21 12572.31,14252.73 12569.74,14249.55 12568.01,14245.87 12567.22,14241.87 12567.42,14237.80 12568.58,14233.89 12570.66,14230.38 12573.52,14227.46 12577.00,14225.31 12580.90,14224.04"/>
    <poly id="302165609" type="landuse" color="194,194,130" fill="1" layer="-3.00" shape="12511.82,14374.51 12506.38,14370.03 12503.08,14363.80 12502.39,14356.79 12504.51,14350.09 12509.01,14344.65 12515.28,14341.38 12522.31,14340.72 12529.07,14342.79 12534.50,14347.27 12537.80,14353.47 12538.49,14360.48 12536.41,14367.21 12531.87,14372.65 12525.63,14375.93 12518.57,14376.57 12511.82,14374.51"/>
    <poly id="302165616" type="landuse" color="194,194,130" fill="1" layer="-3.00" shape="11325.40,13680.43 11332.47,13682.08 11338.36,13686.30 11342.17,13692.44 11343.34,13699.55 11341.67,13706.57 11337.43,13712.43 11331.27,13716.23 11324.10,13717.38 11317.05,13715.73 11311.15,13711.52 11307.33,13705.38 11306.17,13698.26 11307.83,13691.24 11312.07,13685.39 11318.24,13681.60 11325.40,13680.43"/>
    <poly id="302165621" type="landuse" color="194,194,130" fill="1" layer="-3.00" shape="11450.38,13567.22 11453.60,13565.48 11457.26,13565.09 11460.78,13566.12 11463.64,13568.41 11465.39,13571.61 11465.79,13575.23 11464.75,13578.74 11462.45,13581.58 11459.22,13583.34 11455.57,13583.72 11452.05,13582.70 11449.19,13580.41 11447.43,13577.19 11447.04,13573.57 11448.08,13570.07 11450.38,13567.22"/>
    <poly id="302165628" type="landuse" color="194,194,130" fill="1" layer="-3.00" shape="11264.55,13782.48 11271.71,13783.95 11277.76,13788.02 11281.77,13794.09 11283.14,13801.22 11281.66,13808.34 11277.56,13814.35 11271.46,13818.34 11264.29,13819.71 11257.13,13818.24 11251.08,13814.16 11247.07,13808.09 11245.70,13800.97 11247.17,13793.85 11251.27,13787.84 11257.38,13783.84 11264.55,13782.48"/>
    <poly id="326408891" type="tourism" color="207,245,201" fill="1" layer="-2.00" shape="13062.86,12083.26 13097.60,12170.30 13174.98,12139.58 13140.29,12052.70 13062.86,12083.26"/>
    <poly id="326518696" type="amenity" color="237,199,199" fill="1" layer="-1.00" shape="12120.10,11878.45 12167.77,12013.04 12193.15,12084.51 12371.78,12008.85 12300.58,11816.61 12120.10,11878.45"/>
    <poly id="326518697" type="leisure" color="207,245,201" fill="1" layer="-2.00" shape="13043.05,11768.70 13059.77,11810.84 13076.16,11852.16 13110.50,11844.95 13149.52,11826.11 13115.11,11741.62 13081.74,11754.16 13043.05,11768.70"/>
    <poly id="326518698" type="leisure" color="207,245,201" fill="1" layer="-2.00" shape="13040.81,11761.27 13111.18,11734.38 13071.35,11642.72 13006.67,11671.09 13040.81,11761.27"/>
    <poly id="326518699" type="tourism" color="207,245,201" fill="1" layer="-2.00" shape="12349.97,11908.86 12424.25,11881.11 12457.69,11966.26 12383.32,11997.23 12349.97,11908.86"/>
    <poly id="326555033" type="landuse" color="194,194,130" fill="1" layer="-3.00" shape="13594.82,10541.24 13656.86,10612.95 13860.41,10718.72 14002.94,10632.86 14000.04,10622.10 14000.92,10575.95 14001.97,10571.91 14008.14,10564.51 14023.60,10549.67 14104.53,10484.92 14014.72,10374.22 13594.82,10541.24"/>
    <poly id="326555037" type="leisure" color="207,245,201" fill="1" layer="-2.00" shape="12663.61,10111.16 12653.99,10133.55 12653.55,10139.77 12661.40,10142.78 12660.31,10152.51 12657.41,10184.86 12652.72,10237.12 12643.49,10249.15 12705.99,10289.78 12704.25,10316.72 12718.96,10327.41 12747.99,10316.17 12760.75,10336.19 12775.37,10339.64 12807.37,10316.44 12831.00,10291.29 12842.10,10263.18 12843.79,10232.10 12848.29,10176.12 12846.53,10141.19 12802.98,10094.63 12797.38,10081.43 12796.61,10078.80 12747.64,10070.64 12710.75,10077.32 12692.65,10086.88 12677.66,10095.86 12663.61,10111.16"/>
    <poly id="326555041" type="amenity" color="237,199,199" fill="1" layer="-1.00" shape="13298.95,9867.37 13307.75,9915.81 13310.37,9930.26 13319.68,9981.54 13410.11,9966.39 13404.04,9939.55 13447.10,9926.57 13425.56,9831.07 13290.06,9823.47 13298.95,9867.37"/>
    <poly id="326555043" type="tourism" color="207,245,201" fill="1" layer="-2.00" shape="13628.80,11358.77 13627.29,11351.76 13628.66,11345.41 13631.18,11338.95 13635.73,11334.27 13641.64,11329.82 13649.78,11328.54 13656.18,11331.48 13661.26,11338.74 13663.73,11345.81 13665.16,11354.50 13663.84,11362.38 13660.38,11369.71 13654.88,11374.80 13647.01,11376.05 13639.67,11374.00 13633.13,11367.45 13628.80,11358.77"/>
    <poly id="339345199" type="tourism" color="207,245,201" fill="1" layer="-2.00" shape="13836.46,11772.49 13900.15,11751.31 14094.14,11694.11 14282.72,11654.46 14334.51,11641.28 14353.89,11631.35 14360.19,11626.41 14357.90,11618.98 14338.18,11556.22 14330.80,11552.13 14287.15,11558.62 14266.42,11560.61 14254.57,11559.98 14222.37,11557.28 14106.83,11506.52 14075.48,11505.18 13961.70,11551.15 13890.62,11568.23 13873.09,11581.57 13861.32,11602.33 13852.80,11637.58 13842.72,11682.20 13836.36,11744.62 13836.46,11772.49"/>
    <poly id="420348164" type="building" color="255,230,230" fill="1" layer="-1.00" shape="11065.19,10100.36 11102.91,10144.39 11164.78,10094.06 11141.60,10064.12 11106.50,10093.96 11092.79,10078.18 11065.19,10100.36"/>
    <poly id="420348164#1" type="shop" color="237,199,255" fill="1" layer="-1.00" shape="11065.19,10100.36 11102.91,10144.39 11164.78,10094.06 11141.60,10064.12 11106.50,10093.96 11092.79,10078.18 11065.19,10100.36"/>
    <poly id="420350015" type="amenity" color="237,199,199" fill="1" layer="-1.00" shape="11772.45,9895.46 11798.95,9875.73 11822.60,9763.51 11797.99,9756.63 11707.97,9820.93 11772.45,9895.46"/>
    <poly id="428052415" type="tourism" color="207,245,201" fill="1" layer="-2.00" shape="13242.80,12553.62 13245.86,12555.33 13249.55,12555.76 13321.91,12531.92 13323.79,12528.40 13325.49,12524.23 13303.84,12470.57 13300.93,12468.06 13295.34,12469.25 13224.30,12496.57 13220.96,12498.83 13220.36,12501.07 13242.80,12553.62"/>
    <poly id="428053793" type="amenity" color="237,199,199" fill="1" layer="-1.00" shape="13235.67,12510.55 13238.28,12499.19 13280.51,12509.61 13279.76,12507.39 13285.53,12513.93 13283.59,12519.81 13284.08,12522.87 13281.68,12529.82 13266.66,12527.15 13261.79,12525.93 13259.42,12535.20 13243.48,12532.02 13246.83,12513.85 13235.67,12510.55"/>
    <poly id="428053793#1" type="building" color="255,230,230" fill="1" layer="-1.00" shape="13235.67,12510.55 13238.28,12499.19 13280.51,12509.61 13279.76,12507.39 13285.53,12513.93 13283.59,12519.81 13284.08,12522.87 13281.68,12529.82 13266.66,12527.15 13261.79,12525.93 13259.42,12535.20 13243.48,12532.02 13246.83,12513.85 13235.67,12510.55"/>
    <poly id="428056199" type="amenity" color="237,199,199" fill="1" layer="-1.00" shape="13345.66,12519.21 13337.66,12494.18 13360.59,12485.21 13364.61,12469.51 13373.89,12466.44 13386.41,12475.75 13411.26,12467.94 13419.27,12491.86 13358.08,12514.28 13345.66,12519.21"/>
    <poly id="428056199#1" type="building" color="255,230,230" fill="1" layer="-1.00" shape="13345.66,12519.21 13337.66,12494.18 13360.59,12485.21 13364.61,12469.51 13373.89,12466.44 13386.41,12475.75 13411.26,12467.94 13419.27,12491.86 13358.08,12514.28 13345.66,12519.21"/>
    <poly id="428056391" type="amenity" color="237,199,199" fill="1" layer="-1.00" shape="13444.84,12458.91 13484.35,12446.09 13466.89,12392.88 13437.03,12402.57 13443.35,12421.78 13433.68,12424.92 13444.84,12458.91"/>
    <poly id="428056391#1" type="building" color="255,230,230" fill="1" layer="-1.00" shape="13444.84,12458.91 13484.35,12446.09 13466.89,12392.88 13437.03,12402.57 13443.35,12421.78 13433.68,12424.92 13444.84,12458.91"/>
    <poly id="428056900" type="building" color="255,230,230" fill="1" layer="-1.00" shape="13434.42,12102.20 13414.56,12050.81 13419.23,12049.29 13411.04,12030.74 13423.43,12024.92 13417.71,12010.78 13486.01,11978.23 13587.51,11938.99 13591.50,11988.77 13567.89,12040.05 13564.25,12040.98 13559.30,12052.47 13532.95,12062.38 13534.70,12066.99 13521.86,12071.41 13504.85,12077.29 13497.63,12083.44 13495.50,12078.67 13434.42,12102.20"/>
    <poly id="428056900#1" type="shop" color="237,199,255" fill="1" layer="-1.00" shape="13434.42,12102.20 13414.56,12050.81 13419.23,12049.29 13411.04,12030.74 13423.43,12024.92 13417.71,12010.78 13486.01,11978.23 13587.51,11938.99 13591.50,11988.77 13567.89,12040.05 13564.25,12040.98 13559.30,12052.47 13532.95,12062.38 13534.70,12066.99 13521.86,12071.41 13504.85,12077.29 13497.63,12083.44 13495.50,12078.67 13434.42,12102.20"/>
    <poly id="428188409" type="amenity" color="237,199,199" fill="1" layer="-1.00" shape="12347.25,11887.76 12420.46,11859.68 12405.23,11817.52 12446.31,11804.39 12432.94,11767.54 12315.63,11811.70 12332.30,11851.93 12347.25,11887.76"/>
    <poly id="428188638" type="tourism" color="207,245,201" fill="1" layer="-2.00" shape="13993.75,13848.89 13986.73,13836.89 13982.94,13828.26 13980.85,13820.43 13979.29,13810.82 13978.70,13801.33 13978.46,13793.26 13979.36,13786.01 13984.83,13775.32 13989.03,13771.41 13993.38,13768.33 13999.00,13765.63 14004.48,13763.07 14010.45,13762.62 14017.00,13763.41 14023.66,13765.58 14028.40,13769.17 14040.42,13787.70 14049.59,13809.17 14051.87,13829.17 14049.56,13837.76 14046.03,13846.00 14042.27,13849.59 14035.57,13855.42 14027.75,13858.85 14019.53,13859.63 14006.16,13857.54 13998.90,13853.85 13993.75,13848.89"/>
    <poly id="429498272" type="landuse" color="194,194,130" fill="1" layer="-3.00" shape="8339.85,13087.37 8329.50,13088.09 8319.54,13085.24 8311.14,13079.21 8305.30,13070.69 8302.73,13060.70 8303.72,13050.43 8308.18,13041.13 8314.79,13034.42 8323.17,13030.09 8332.48,13028.56 8341.82,13029.98 8350.25,13034.21 8356.93,13040.83 8361.22,13049.20 8362.67,13058.48 8361.17,13067.75 8356.84,13076.08 8349.34,13083.21 8339.85,13087.37"/>
    <poly id="429498273" type="landuse" color="194,194,130" fill="1" layer="-3.00" shape="8088.49,12994.92 8088.26,12996.76 8088.33,12998.62 8088.73,13000.45 8089.43,13002.16 8090.40,13003.75 8091.62,13005.15 8093.07,13006.33 8094.71,13007.24 8096.46,13007.87 8103.80,13008.64 8111.17,13008.13 8118.34,13006.36 8125.09,13003.38 8131.22,12999.28 8136.54,12994.19 8140.90,12988.26 8144.16,12981.67 8146.21,12974.61 8147.01,12967.32 8146.52,12959.99 8144.77,12952.86 8141.80,12946.14 8137.69,12940.04 8130.77,12932.08 8128.77,12931.25 8126.68,12930.77 8124.52,12930.63 8122.37,12930.86 8120.29,12931.41 8118.32,12932.31 8116.54,12933.53 8114.98,12935.01 8113.69,12936.74 8088.49,12994.92"/>
    <poly id="429538505" type="landuse" color="194,194,130" fill="1" layer="-3.00" shape="8081.54,12446.50 8190.77,12357.72 8219.29,12397.65 8237.23,12419.92 8243.02,12434.42 8238.67,12448.62 8226.91,12455.83 8104.12,12477.07 8091.18,12476.16 8082.70,12470.48 8079.55,12459.17 8081.54,12446.50"/>
    <poly id="429538506" type="landuse" color="194,194,130" fill="1" layer="-3.00" shape="8140.95,12211.32 8173.71,12221.19 8213.52,12224.45 8246.13,12220.83 8276.85,12213.37 8299.54,12201.85 8173.59,12306.25 8160.87,12288.52 8149.96,12269.05 8142.55,12244.72 8142.26,12230.04 8140.95,12211.32"/>